                                  MODFLOW-2005     
      U.S. GEOLOGICAL SURVEY MODULAR FINITE-DIFFERENCE GROUND-WATER FLOW MODEL
                            VERSION 1.12.00 2/3/2017

 LIST FILE: modflowtest.list
                         UNIT    2

 OPENING modflowtest.dis
 FILE TYPE:DIS   UNIT   11   STATUS:OLD    
 FORMAT:FORMATTED              ACCESS:SEQUENTIAL          

 OPENING modflowtest.bas
 FILE TYPE:BAS6   UNIT   13   STATUS:OLD    
 FORMAT:FORMATTED              ACCESS:SEQUENTIAL          

 OPENING modflowtest.ghb
 FILE TYPE:GHB   UNIT   23   STATUS:OLD    
 FORMAT:FORMATTED              ACCESS:SEQUENTIAL          

 OPENING modflowtest.wel
 FILE TYPE:WEL   UNIT   20   STATUS:OLD    
 FORMAT:FORMATTED              ACCESS:SEQUENTIAL          

 OPENING modflowtest.lpf
 FILE TYPE:LPF   UNIT   15   STATUS:OLD    
 FORMAT:FORMATTED              ACCESS:SEQUENTIAL          

 OPENING modflowtest.pcg
 FILE TYPE:PCG   UNIT   27   STATUS:OLD    
 FORMAT:FORMATTED              ACCESS:SEQUENTIAL          

 OPENING modflowtest.oc
 FILE TYPE:OC   UNIT   14   STATUS:OLD    
 FORMAT:FORMATTED              ACCESS:SEQUENTIAL          

 OPENING modflowtest.hds
 FILE TYPE:DATA(BINARY)   UNIT   51   STATUS:REPLACE
 FORMAT:BINARY                 ACCESS:SEQUENTIAL          

 OPENING modflowtest.ddn
 FILE TYPE:DATA(BINARY)   UNIT   52   STATUS:REPLACE
 FORMAT:BINARY                 ACCESS:SEQUENTIAL          

 BAS -- BASIC PACKAGE, VERSION 7, 5/2/2005 INPUT READ FROM UNIT   13
 
 MODFLOW was compiled using mixed precision
 Precision of REAL variables:           6
 Precision of DOUBLE PRECISION variables:          15

 DISCRETIZATION INPUT DATA READ FROM UNIT   11
 # DIS package for  MODFLOW-2005, generated by Flopy.
    1 LAYERS        40 ROWS        75 COLUMNS
    1 STRESS PERIOD(S) IN SIMULATION
 MODEL TIME UNIT IS DAYS
 MODEL LENGTH UNIT IS METERS
  Confining bed flag for each layer:
   0

                     DELR =   149.474    

                     DELC =   149.652    



           TOP ELEVATION OF LAYER 1
 READING ON UNIT   11 WITH FORMAT: (75E15.6)           



             MODEL LAYER BOTTOM EL. FOR LAYER   1
 READING ON UNIT   11 WITH FORMAT: (75E15.6)           


 STRESS PERIOD     LENGTH       TIME STEPS     MULTIPLIER FOR DELT    SS FLAG
 ----------------------------------------------------------------------------
        1         3652.000          1                    1.000         SS

 STEADY-STATE SIMULATION



 
 # BAS6 package for  MODFLOW-2005, generated by Flopy.                           
 THE FREE FORMAT OPTION HAS BEEN SELECTED



                     BOUNDARY ARRAY FOR LAYER   1
 READING ON UNIT   13 WITH FORMAT: (75I10)             

 AQUIFER HEAD WILL BE SET TO  -999.99     AT ALL NO-FLOW NODES (IBOUND=0).



                       INITIAL HEAD FOR LAYER   1
 READING ON UNIT   13 WITH FORMAT: (75E15.6)           
 # OC package for  MODFLOW-2005, generated by Flopy.

 OUTPUT CONTROL IS SPECIFIED ONLY AT TIME STEPS FOR WHICH OUTPUT IS DESIRED
 COMPACT CELL-BY-CELL BUDGET FILES WILL BE WRITTEN
 AUXILIARY DATA WILL BE SAVED IN CELL-BY-CELL BUDGET FILES
 HEAD PRINT FORMAT CODE IS   0    DRAWDOWN PRINT FORMAT CODE IS   0
 HEADS WILL BE SAVED ON UNIT   51    DRAWDOWNS WILL BE SAVED ON UNIT   52

 LPF -- LAYER-PROPERTY FLOW PACKAGE, VERSION 7, 5/2/2005
         INPUT READ FROM UNIT   15
 # LPF package for  MODFLOW-2005, generated by Flopy.
 HEAD AT CELLS THAT CONVERT TO DRY= -1.00000E+30
 No named parameters

   LAYER FLAGS:
 LAYER       LAYTYP        LAYAVG         CHANI        LAYVKA        LAYWET
 ---------------------------------------------------------------------------
    1             1             0     0.000E+00             0             0

   INTERPRETATION OF LAYER FLAGS:
                        INTERBLOCK     HORIZONTAL    DATA IN
         LAYER TYPE   TRANSMISSIVITY   ANISOTROPY   ARRAY VKA   WETTABILITY
 LAYER      (LAYTYP)      (LAYAVG)       (CHANI)      (LAYVKA)      (LAYWET)
 ---------------------------------------------------------------------------
    1   CONVERTIBLE      HARMONIC      VARIABLE    VERTICAL K  NON-WETTABLE

 WETTING CAPABILITY IS NOT ACTIVE IN ANY LAYER

    HYD. COND. ALONG ROWS =   8.64000     FOR LAYER   1

   HORIZ. ANI. (COL./ROW) =   1.00000     FOR LAYER   1

      VERTICAL HYD. COND. =  0.864000     FOR LAYER   1

 WEL -- WELL PACKAGE, VERSION 7, 5/2/2005 INPUT READ FROM UNIT   20
 # WEL package for  MODFLOW-2005, generated by Flopy.
 No named parameters
 MAXIMUM OF      2 ACTIVE WELLS AT ONE TIME


     0 Well parameters

 GHB -- GENERAL-HEAD BOUNDARY PACKAGE, VERSION 7, 5/2/2005
         INPUT READ FROM UNIT   23
 # GHB package for  MODFLOW-2005, generated by Flopy.
 No named parameters
 MAXIMUM OF     77 ACTIVE GHB CELLS AT ONE TIME


     0 GHB parameters

 PCG -- CONJUGATE-GRADIENT SOLUTION PACKAGE, VERSION 7, 5/2/2005
 # PCG package for  MODFLOW-2005, generated by Flopy.
 MAXIMUM OF     50 CALLS OF SOLUTION ROUTINE
 MAXIMUM OF     30 INTERNAL ITERATIONS PER CALL TO SOLUTION ROUTINE
 MATRIX PRECONDITIONING TYPE :    1



                                    SOLUTION BY THE CONJUGATE-GRADIENT METHOD
                                   -------------------------------------------
                    MAXIMUM NUMBER OF CALLS TO PCG ROUTINE =       50
                        MAXIMUM ITERATIONS PER CALL TO PCG =       30
                               MATRIX PRECONDITIONING TYPE =        1
        RELAXATION FACTOR (ONLY USED WITH PRECOND. TYPE 1) =    0.10000E+01
 PARAMETER OF POLYNOMIAL PRECOND. = 2 (2) OR IS CALCULATED :        0
                         HEAD CHANGE CRITERION FOR CLOSURE =    0.10000E-04
                     RESIDUAL CHANGE CRITERION FOR CLOSURE =    0.10000E-04
            PCG HEAD AND RESIDUAL CHANGE PRINTOUT INTERVAL =      999
     PRINTING FROM SOLVER IS LIMITED(1) OR SUPPRESSED (>1) =        3
                            STEADY-STATE DAMPING PARAMETER =    0.10000E+01
                               TRANSIENT DAMPING PARAMETER =    0.10000E+01
1
                            STRESS PERIOD NO.    1, LENGTH =   3652.000    
                            -----------------------------------------------

                              NUMBER OF TIME STEPS =     1

                               MULTIPLIER FOR DELT =     1.000

                            INITIAL TIME STEP SIZE =   3652.000    

 WELL NO.  LAYER   ROW   COL   STRESS RATE         
 --------------------------------------------------
      1      1     15     40      -5000.    
      2      1     21     37      -5000.    

      2 WELLS

 BOUND. NO. LAYER   ROW   COL     STAGE      CONDUCTANCE         
 ----------------------------------------------------------------
      1      1     39      1       450.0           200.0    
      2      1     38      1       450.0           200.0    
      3      1     37      1       450.0           200.0    
      4      1     36      1       450.0           200.0    
      5      1     35      1       450.0           200.0    
      6      1     34      1       450.0           200.0    
      7      1     33      1       450.0           200.0    
      8      1     32      1       450.0           200.0    
      9      1     31      1       450.0           200.0    
     10      1     30      1       450.0           200.0    
     11      1     29      1       450.0           200.0    
     12      1     28      1       450.0           200.0    
     13      1     27      1       450.0           200.0    
     14      1     26      1       450.0           200.0    
     15      1     25      1       450.0           200.0    
     16      1     24      1       450.0           200.0    
     17      1     23      1       450.0           200.0    
     18      1     22      1       450.0           200.0    
     19      1     21      1       450.0           200.0    
     20      1     20      1       450.0           200.0    
     21      1     19      1       450.0           200.0    
     22      1     18      1       450.0           200.0    
     23      1     17      1       450.0           200.0    
     24      1     16      1       450.0           200.0    
     25      1     15      1       450.0           200.0    
     26      1     14      1       450.0           200.0    
     27      1     13      1       450.0           200.0    
     28      1     12      1       450.0           200.0    
     29      1     11      1       450.0           200.0    
     30      1     10      1       450.0           200.0    
     31      1      9      1       450.0           200.0    
     32      1      8      1       450.0           200.0    
     33      1      7      1       450.0           200.0    
     34      1      6      1       450.0           200.0    
     35      1      5      1       450.0           200.0    
     36      1      4      1       450.0           200.0    
     37      1      3      1       450.0           200.0    
     38      1      2      1       450.0           200.0    
     39      1     39     74       444.0           202.0    
     40      1     38     74       444.0           202.0    
     41      1     37     74       444.0           202.0    
     42      1     36     74       444.0           202.0    
     43      1     35     74       444.0           202.0    
     44      1     34     74       444.0           202.0    
     45      1     33     74       444.0           202.0    
     46      1     32     74       444.0           202.0    
     47      1     31     74       444.0           202.0    
     48      1     30     74       444.0           202.0    
     49      1     29     74       444.0           202.0    
     50      1     28     74       444.0           202.0    
     51      1     27     74       444.0           202.0    
     52      1     26     74       444.0           202.0    
     53      1     25     74       444.0           202.0    
     54      1     24     74       444.0           202.0    
     55      1     23     74       444.0           202.0    
     56      1     22     74       444.0           202.0    
     57      1     21     74       444.0           202.0    
     58      1     20     74       444.0           202.0    
     59      1     19     74       444.0           202.0    
     60      1     18     74       444.0           202.0    
     61      1     17     74       444.0           202.0    
     62      1     16     74       444.0           202.0    
     63      1     15     74       444.0           202.0    
     64      1     14     74       444.0           202.0    
     65      1     13     74       444.0           202.0    
     66      1     12     74       444.0           202.0    
     67      1     11     74       444.0           202.0    
     68      1     10     74       444.0           202.0    
     69      1      9     74       444.0           202.0    
     70      1      8     74       444.0           202.0    
     71      1      7     74       444.0           202.0    
     72      1      6     74       444.0           202.0    
     73      1      5     74       444.0           202.0    
     74      1      4     74       444.0           202.0    
     75      1      3     74       444.0           202.0    
     76      1      2     74       444.0           202.0    
     77      1      1     74       444.0           202.0    

     77 GHB CELLS
 
 SOLVING FOR HEAD 

 OUTPUT CONTROL FOR STRESS PERIOD    1   TIME STEP    1
    SAVE HEAD FOR ALL LAYERS
    SAVE DRAWDOWN FOR ALL LAYERS

 HEAD WILL BE SAVED ON UNIT   51 AT END OF TIME STEP    1, STRESS PERIOD    1

 DRAWDOWN WILL BE SAVED ON UNIT   52 AT END OF TIME STEP    1, STRESS PERIOD    1
1
  VOLUMETRIC BUDGET FOR ENTIRE MODEL AT END OF TIME STEP    1, STRESS PERIOD   1
  ------------------------------------------------------------------------------

     CUMULATIVE VOLUMES      L**3       RATES FOR THIS TIME STEP      L**3/T
     ------------------                 ------------------------

           IN:                                      IN:
           ---                                      ---
             STORAGE =           0.0000               STORAGE =           0.0000
       CONSTANT HEAD =           0.0000         CONSTANT HEAD =           0.0000
               WELLS =           0.0000                 WELLS =           0.0000
     HEAD DEP BOUNDS =    36520000.0000       HEAD DEP BOUNDS =       10000.0000

            TOTAL IN =    36520000.0000              TOTAL IN =       10000.0000

          OUT:                                     OUT:
          ----                                     ----
             STORAGE =           0.0000               STORAGE =           0.0000
       CONSTANT HEAD =           0.0000         CONSTANT HEAD =           0.0000
               WELLS =    36520000.0000                 WELLS =       10000.0000
     HEAD DEP BOUNDS =           0.0000       HEAD DEP BOUNDS =           0.0000

           TOTAL OUT =    36520000.0000             TOTAL OUT =       10000.0000

            IN - OUT =           0.0000              IN - OUT =           0.0000

 PERCENT DISCREPANCY =           0.00     PERCENT DISCREPANCY =           0.00






         TIME SUMMARY AT END OF TIME STEP    1 IN STRESS PERIOD    1
                    SECONDS     MINUTES      HOURS       DAYS        YEARS
                    -----------------------------------------------------------
   TIME STEP LENGTH 3.15533E+08 5.25888E+06  87648.      3652.0      9.9986    
 STRESS PERIOD TIME 3.15533E+08 5.25888E+06  87648.      3652.0      9.9986    
         TOTAL TIME 3.15533E+08 5.25888E+06  87648.      3652.0      9.9986    
1

 Run end date and time (yyyy/mm/dd hh:mm:ss): 2019/11/12 13:58:33
 Elapsed run time:  0.122 Seconds

